data_BABMUQ
_symmetry_cell_setting           monoclinic
_symmetry_space_group_name_H-M   'C 2/c'
_symmetry_Int_Tables_number      15
_space_group_name_Hall           '-C 2yc'
loop_
_symmetry_equiv_pos_site_id
_symmetry_equiv_pos_as_xyz
1 x,y,z
2 -x,y,1/2-z
3 1/2+x,1/2+y,z
4 1/2-x,1/2+y,1/2-z
5 -x,-y,-z
6 x,-y,1/2+z
7 1/2-x,1/2-y,-z
8 1/2+x,1/2-y,1/2+z
_cell_length_a                   15.3499(6)
_cell_length_b                   7.7491(3)
_cell_length_c                   12.6509(5)
_cell_angle_alpha                90
_cell_angle_beta                 109.457(2)
_cell_angle_gamma                90
_cell_volume                     1418.86
loop_
_atom_site_label
_atom_site_type_symbol
_atom_site_fract_x
_atom_site_fract_y
_atom_site_fract_z
_atom_site_U_iso_or_equiv
_atom_site_thermal_displace_type
C1 C 0.63225(14) 0.5807(3) 0.61098(16) 0.0155 Uani
C2 C 0.58301(15) 0.4473(3) 0.63701(17) 0.0198 Uani
H1 H 0.5557 0.4611 0.6937 0.0240 Uiso
C3 C 0.57432(16) 0.2942(3) 0.57934(19) 0.0210 Uani
H2 H 0.5410 0.2007 0.5961 0.0250 Uiso
C4 C 0.61452(16) 0.2774(3) 0.49659(19) 0.0211 Uani
H3 H 0.6087 0.1734 0.4550 0.0250 Uiso
C5 C 0.66310(15) 0.4154(3) 0.47634(17) 0.0183 Uani
H4 H 0.6912 0.4041 0.4202 0.0220 Uiso
I1 I 0.64436(2) 0.81831(2) 0.69488(2) 0.0198 Uani
Cu1 Cu 0.7500 0.7500 0.5000 0.0130 Uani
Cl1 Cl 0.87303(4) 0.65033(7) 0.63954(4) 0.0194 Uani
N1 N 0.67260(11) 0.5660(2) 0.53261(13) 0.0140 Uani
C1F C 0.86775(14) 0.9193(3) 0.38902(16) 0.0155 Uani
C2F C 0.91699(15) 1.0527(3) 0.36299(17) 0.0198 Uani
H1F H 0.9443 1.0389 0.3063 0.0240 Uiso
C3F C 0.92568(16) 1.2058(3) 0.42066(19) 0.0210 Uani
H2F H 0.9590 1.2993 0.4039 0.0250 Uiso
C4F C 0.88548(16) 1.2226(3) 0.50341(19) 0.0211 Uani
H3F H 0.8913 1.3266 0.5450 0.0250 Uiso
C5F C 0.83690(15) 1.0846(3) 0.52366(17) 0.0183 Uani
H4F H 0.8088 1.0959 0.5798 0.0220 Uiso
I1F I 0.85564(2) 0.68169(2) 0.30512(2) 0.0198 Uani
Cl1F Cl 0.62697(4) 0.84967(7) 0.36046(4) 0.0194 Uani
N1F N 0.82740(11) 0.9340(2) 0.46739(13) 0.0140 Uani

data_BABMUQ-2
_symmetry_cell_setting           monoclinic
_symmetry_space_group_name_H-M   'C c'
_symmetry_Int_Tables_number      9
_space_group_name_Hall           'C -2yc'
loop_
_symmetry_equiv_pos_site_id
_symmetry_equiv_pos_as_xyz
1 x,y,z
2 x,-y,1/2+z
3 1/2+x,1/2+y,z
4 1/2+x,1/2-y,1/2+z
_cell_length_a                   15.3499
_cell_length_b                   7.7491
_cell_length_c                   12.6509
_cell_angle_alpha                90
_cell_angle_beta                 109.457
_cell_angle_gamma                90
_cell_volume                     1418.86
loop_
_atom_site_label
_atom_site_type_symbol
_atom_site_fract_x
_atom_site_fract_y
_atom_site_fract_z
_atom_site_U_iso_or_equiv
_atom_site_thermal_displace_type
C1 C 0.63225(14) 0.5807(3) 0.61098(16) 0.0155 Uani
C2 C 0.58301(15) 0.4473(3) 0.63701(17) 0.0198 Uani
H1 H 0.5557 0.4611 0.6937 0.0240 Uiso
C3 C 0.57432(16) 0.2942(3) 0.57934(19) 0.0210 Uani
H2 H 0.5410 0.2007 0.5961 0.0250 Uiso
C4 C 0.61452(16) 0.2774(3) 0.49659(19) 0.0211 Uani
H3 H 0.6087 0.1734 0.4550 0.0250 Uiso
C5 C 0.66310(15) 0.4154(3) 0.47634(17) 0.0183 Uani
H4 H 0.6912 0.4041 0.4202 0.0220 Uiso
I1 I 0.64436(2) 0.81831(2) 0.69488(2) 0.0198 Uani
Cu1 Cu 0.7500 0.7500 0.5000 0.0130 Uani
Cl1 Cl 0.87303(4) 0.65033(7) 0.63954(4) 0.0194 Uani
N1 N 0.67260(11) 0.5660(2) 0.53261(13) 0.0140 Uani
C1F C 0.86775(14) 0.9193(3) 0.38902(16) 0.0155 Uani
C2F C 0.91699(15) 1.0527(3) 0.36299(17) 0.0198 Uani
H1F H 0.9443 1.0389 0.3063 0.0240 Uiso
C3F C 0.92568(16) 1.2058(3) 0.42066(19) 0.0210 Uani
H2F H 0.9590 1.2993 0.4039 0.0250 Uiso
C4F C 0.88548(16) 1.2226(3) 0.50341(19) 0.0211 Uani
H3F H 0.8913 1.3266 0.5450 0.0250 Uiso
C5F C 0.83690(15) 1.0846(3) 0.52366(17) 0.0183 Uani
H4F H 0.8088 1.0959 0.5798 0.0220 Uiso
I1F I 0.85564(2) 0.68169(2) 0.30512(2) 0.0198 Uani
Cl1F Cl 0.62697(4) 0.84967(7) 0.36046(4) 0.0194 Uani
N1F N 0.82740(11) 0.9340(2) 0.46739(13) 0.0140 Uani
